[root]
type=Root
children=system
eventq_index=0
full_system=true
sim_quantum=0
time_sync_enable=false
time_sync_period=100000000000
time_sync_spin_threshold=99999999

[system]
type=ArmSystem
children=clk_domain cpu_cluster dvfs_handler iobridge iobus iocache mem_ctrls membus pci_devices realview release terminal vncserver voltage_domain workload
auto_reset_addr=true
auto_unlink_shared_backstore=false
cache_line_size=64
eventq_index=0
exit_on_work_items=false
gic_cpu_addr=0
have_large_asid_64=false
highest_el_is_64=true
init_param=0
m5ops_base=268500992
mem_mode=timing
mem_ranges=2147483648:6442450944
memories=system.mem_ctrls.dram system.realview.bootmem system.realview.flash0 system.realview.flash1 system.realview.non_trusted_sram system.realview.trusted_dram system.realview.trusted_sram system.realview.vram
mmap_using_noreserve=false
multi_proc=true
multi_thread=false
num_work_ids=16
phys_addr_range_64=40
readfile=deploy-benchmarks.sh
redirect_paths=
release=system.release
reset_addr=0
semihosting=Null
shadow_rom_ranges=
shared_backstore=
sme_vl=1
sve_vl=1
symbolfile=
thermal_components=
thermal_model=Null
work_begin_ckpt_count=0
work_begin_cpu_id_exit=-1
work_begin_exit_count=0
work_cpus_ckpt_count=0
work_end_ckpt_count=0
work_end_exit_count=0
work_item_id=-1
workload=system.workload
system_port=system.membus.cpu_side_ports[2]

[system.clk_domain]
type=SrcClockDomain
clock=666
domain_id=-1
eventq_index=0
init_perf_level=0
voltage_domain=system.voltage_domain

[system.cpu_cluster]
type=CpuCluster
children=clk_domain cpus0 cpus1 cpus2 cpus3 l2 toL2Bus voltage_domain
clk_domain=system.cpu_cluster.clk_domain
eventq_index=0
thermal_domain=Null
voltage_domain=system.cpu_cluster.voltage_domain

[system.cpu_cluster.clk_domain]
type=SrcClockDomain
clock=666
domain_id=0
eventq_index=0
init_perf_level=0
voltage_domain=system.cpu_cluster.voltage_domain

[system.cpu_cluster.cpus0]
type=BaseO3CPU
children=branchPred dcache decoder fuPool icache interrupts isa mmu power_model power_state tracer
LFSTSize=1024
LQEntries=16
LSQCheckLoads=true
LSQDepCheckShift=0
SQEntries=16
SSITSize=1024
activity=0
backComSize=5
branchPred=system.cpu_cluster.cpus0.branchPred
cacheLoadPorts=200
cacheStorePorts=200
checker=Null
clk_domain=system.cpu_cluster.clk_domain
commitToDecodeDelay=1
commitToFetchDelay=1
commitToIEWDelay=1
commitToRenameDelay=1
commitWidth=8
cpu_id=0
decodeToFetchDelay=1
decodeToRenameDelay=1
decodeWidth=3
decoder=system.cpu_cluster.cpus0.decoder
dispatchWidth=2
do_checkpoint_insts=true
do_statistics_insts=true
eventq_index=0
fetchBufferSize=16
fetchQueueSize=32
fetchToDecodeDelay=3
fetchTrapLatency=1
fetchWidth=5
forwardComSize=5
fuPool=system.cpu_cluster.cpus0.fuPool
function_trace=false
function_trace_start=0
iewToCommitDelay=1
iewToDecodeDelay=1
iewToFetchDelay=1
iewToRenameDelay=1
interrupts=system.cpu_cluster.cpus0.interrupts
isa=system.cpu_cluster.cpus0.isa
issueToExecuteDelay=1
issueWidth=1
max_insts_all_threads=0
max_insts_any_thread=0
mmu=system.cpu_cluster.cpus0.mmu
needsTSO=false
numIQEntries=32
numPhysCCRegs=640
numPhysFloatRegs=192
numPhysIntRegs=128
numPhysMatRegs=2
numPhysVecPredRegs=32
numPhysVecRegs=48
numROBEntries=40
numRobs=1
numThreads=1
power_gating_on_idle=false
power_model=system.cpu_cluster.cpus0.power_model
power_state=system.cpu_cluster.cpus0.power_state
progress_interval=0
pwr_gating_latency=300
renameToDecodeDelay=1
renameToFetchDelay=1
renameToIEWDelay=1
renameToROBDelay=1
renameWidth=3
simpoint_start_insts=
smtCommitPolicy=RoundRobin
smtFetchPolicy=RoundRobin
smtIQPolicy=Partitioned
smtIQThreshold=100
smtLSQPolicy=Partitioned
smtLSQThreshold=100
smtNumFetchingThreads=1
smtROBPolicy=Partitioned
smtROBThreshold=100
socket_id=0
squashWidth=8
store_set_clear_period=250000
switched_out=false
syscallRetryLatency=10000
system=system
tracer=system.cpu_cluster.cpus0.tracer
trapLatency=13
wbWidth=2
workload=
dcache_port=system.cpu_cluster.cpus0.dcache.cpu_side
icache_port=system.cpu_cluster.cpus0.icache.cpu_side

[system.cpu_cluster.cpus0.branchPred]
type=BiModeBP
children=indirectBranchPred
BTBEntries=2048
BTBTagSize=18
RASSize=16
choiceCtrBits=2
choicePredictorSize=8192
eventq_index=0
globalCtrBits=2
globalPredictorSize=8192
indirectBranchPred=system.cpu_cluster.cpus0.branchPred.indirectBranchPred
instShiftAmt=2
numThreads=1

[system.cpu_cluster.cpus0.branchPred.indirectBranchPred]
type=SimpleIndirectPredictor
eventq_index=0
indirectGHRBits=13
indirectHashGHR=true
indirectHashTargets=true
indirectPathLength=3
indirectSets=256
indirectTagSize=16
indirectWays=2
instShiftAmt=2
numThreads=1

[system.cpu_cluster.cpus0.dcache]
type=Cache
children=power_model power_state replacement_policy tags
addr_ranges=0:18446744073709551615
assoc=2
clk_domain=system.cpu_cluster.clk_domain
clusivity=mostly_incl
compressor=Null
data_latency=2
demand_mshr_reserve=1
eventq_index=0
is_read_only=false
max_miss_count=0
move_contractions=true
mshrs=6
power_model=system.cpu_cluster.cpus0.dcache.power_model
power_state=system.cpu_cluster.cpus0.dcache.power_state
prefetch_on_access=false
prefetch_on_pf_hit=false
prefetcher=Null
replace_expansions=true
replacement_policy=system.cpu_cluster.cpus0.dcache.replacement_policy
response_latency=2
sequential_access=false
size=32768
system=system
tag_latency=2
tags=system.cpu_cluster.cpus0.dcache.tags
tgts_per_mshr=8
warmup_percentage=0
write_allocator=Null
write_buffers=16
writeback_clean=true
cpu_side=system.cpu_cluster.cpus0.dcache_port
mem_side=system.cpu_cluster.toL2Bus.cpu_side_ports[1]

[system.cpu_cluster.cpus0.dcache.power_model]
type=PowerModel
children=pm0 pm1 pm2 pm3
ambient_temp=298.15
eventq_index=0
pm=system.cpu_cluster.cpus0.dcache.power_model.pm0 system.cpu_cluster.cpus0.dcache.power_model.pm1 system.cpu_cluster.cpus0.dcache.power_model.pm2 system.cpu_cluster.cpus0.dcache.power_model.pm3
pm_type=All
subsystem=system.cpu_cluster

[system.cpu_cluster.cpus0.dcache.power_model.pm0]
type=MathExprPowerModel
dyn=system.cpu_cluster.cpus0.dcache.overallAccesses * 0.000018000
eventq_index=0
st=(voltage * 3)/10

[system.cpu_cluster.cpus0.dcache.power_model.pm1]
type=MathExprPowerModel
dyn=0
eventq_index=0
st=0

[system.cpu_cluster.cpus0.dcache.power_model.pm2]
type=MathExprPowerModel
dyn=0
eventq_index=0
st=0

[system.cpu_cluster.cpus0.dcache.power_model.pm3]
type=MathExprPowerModel
dyn=0
eventq_index=0
st=0

[system.cpu_cluster.cpus0.dcache.power_state]
type=PowerState
clk_gate_bins=20
clk_gate_max=1000000000000
clk_gate_min=1000
default_state=ON
eventq_index=0
leaders=
possible_states=

[system.cpu_cluster.cpus0.dcache.replacement_policy]
type=LRURP
eventq_index=0

[system.cpu_cluster.cpus0.dcache.tags]
type=BaseSetAssoc
children=indexing_policy power_state
assoc=2
block_size=64
clk_domain=system.cpu_cluster.clk_domain
entry_size=64
eventq_index=0
indexing_policy=system.cpu_cluster.cpus0.dcache.tags.indexing_policy
power_model=
power_state=system.cpu_cluster.cpus0.dcache.tags.power_state
replacement_policy=system.cpu_cluster.cpus0.dcache.replacement_policy
sequential_access=false
size=32768
system=system
tag_latency=2
warmup_percentage=0

[system.cpu_cluster.cpus0.dcache.tags.indexing_policy]
type=SetAssociative
assoc=2
entry_size=64
eventq_index=0
size=32768

[system.cpu_cluster.cpus0.dcache.tags.power_state]
type=PowerState
clk_gate_bins=20
clk_gate_max=1000000000000
clk_gate_min=1000
default_state=UNDEFINED
eventq_index=0
leaders=
possible_states=

[system.cpu_cluster.cpus0.decoder]
type=ArmDecoder
dvm_enabled=false
eventq_index=0
isa=system.cpu_cluster.cpus0.isa

[system.cpu_cluster.cpus0.fuPool]
type=FUPool
children=FUList0 FUList1 FUList2 FUList3 FUList4
FUList=system.cpu_cluster.cpus0.fuPool.FUList0 system.cpu_cluster.cpus0.fuPool.FUList1 system.cpu_cluster.cpus0.fuPool.FUList2 system.cpu_cluster.cpus0.fuPool.FUList3 system.cpu_cluster.cpus0.fuPool.FUList4
eventq_index=0

[system.cpu_cluster.cpus0.fuPool.FUList0]
type=FUDesc
children=opList
count=2
eventq_index=0
opList=system.cpu_cluster.cpus0.fuPool.FUList0.opList

[system.cpu_cluster.cpus0.fuPool.FUList0.opList]
type=OpDesc
eventq_index=0
opClass=IntAlu
opLat=1
pipelined=true

[system.cpu_cluster.cpus0.fuPool.FUList1]
type=FUDesc
children=opList0 opList1 opList2
count=1
eventq_index=0
opList=system.cpu_cluster.cpus0.fuPool.FUList1.opList0 system.cpu_cluster.cpus0.fuPool.FUList1.opList1 system.cpu_cluster.cpus0.fuPool.FUList1.opList2

[system.cpu_cluster.cpus0.fuPool.FUList1.opList0]
type=OpDesc
eventq_index=0
opClass=IntMult
opLat=3
pipelined=true

[system.cpu_cluster.cpus0.fuPool.FUList1.opList1]
type=OpDesc
eventq_index=0
opClass=IntDiv
opLat=12
pipelined=false

[system.cpu_cluster.cpus0.fuPool.FUList1.opList2]
type=OpDesc
eventq_index=0
opClass=IprAccess
opLat=3
pipelined=true

[system.cpu_cluster.cpus0.fuPool.FUList2]
type=FUDesc
children=opList0 opList1
count=1
eventq_index=0
opList=system.cpu_cluster.cpus0.fuPool.FUList2.opList0 system.cpu_cluster.cpus0.fuPool.FUList2.opList1

[system.cpu_cluster.cpus0.fuPool.FUList2.opList0]
type=OpDesc
eventq_index=0
opClass=MemRead
opLat=2
pipelined=true

[system.cpu_cluster.cpus0.fuPool.FUList2.opList1]
type=OpDesc
eventq_index=0
opClass=FloatMemRead
opLat=2
pipelined=true

[system.cpu_cluster.cpus0.fuPool.FUList3]
type=FUDesc
children=opList0 opList1
count=1
eventq_index=0
opList=system.cpu_cluster.cpus0.fuPool.FUList3.opList0 system.cpu_cluster.cpus0.fuPool.FUList3.opList1

[system.cpu_cluster.cpus0.fuPool.FUList3.opList0]
type=OpDesc
eventq_index=0
opClass=MemWrite
opLat=2
pipelined=true

[system.cpu_cluster.cpus0.fuPool.FUList3.opList1]
type=OpDesc
eventq_index=0
opClass=FloatMemWrite
opLat=2
pipelined=true

[system.cpu_cluster.cpus0.fuPool.FUList4]
type=FUDesc
children=opList00 opList01 opList02 opList03 opList04 opList05 opList06 opList07 opList08 opList09 opList10 opList11 opList12 opList13 opList14 opList15 opList16 opList17 opList18 opList19 opList20 opList21 opList22 opList23 opList24 opList25 opList26 opList27
count=2
eventq_index=0
opList=system.cpu_cluster.cpus0.fuPool.FUList4.opList00 system.cpu_cluster.cpus0.fuPool.FUList4.opList01 system.cpu_cluster.cpus0.fuPool.FUList4.opList02 system.cpu_cluster.cpus0.fuPool.FUList4.opList03 system.cpu_cluster.cpus0.fuPool.FUList4.opList04 system.cpu_cluster.cpus0.fuPool.FUList4.opList05 system.cpu_cluster.cpus0.fuPool.FUList4.opList06 system.cpu_cluster.cpus0.fuPool.FUList4.opList07 system.cpu_cluster.cpus0.fuPool.FUList4.opList08 system.cpu_cluster.cpus0.fuPool.FUList4.opList09 system.cpu_cluster.cpus0.fuPool.FUList4.opList10 system.cpu_cluster.cpus0.fuPool.FUList4.opList11 system.cpu_cluster.cpus0.fuPool.FUList4.opList12 system.cpu_cluster.cpus0.fuPool.FUList4.opList13 system.cpu_cluster.cpus0.fuPool.FUList4.opList14 system.cpu_cluster.cpus0.fuPool.FUList4.opList15 system.cpu_cluster.cpus0.fuPool.FUList4.opList16 system.cpu_cluster.cpus0.fuPool.FUList4.opList17 system.cpu_cluster.cpus0.fuPool.FUList4.opList18 system.cpu_cluster.cpus0.fuPool.FUList4.opList19 system.cpu_cluster.cpus0.fuPool.FUList4.opList20 system.cpu_cluster.cpus0.fuPool.FUList4.opList21 system.cpu_cluster.cpus0.fuPool.FUList4.opList22 system.cpu_cluster.cpus0.fuPool.FUList4.opList23 system.cpu_cluster.cpus0.fuPool.FUList4.opList24 system.cpu_cluster.cpus0.fuPool.FUList4.opList25 system.cpu_cluster.cpus0.fuPool.FUList4.opList26 system.cpu_cluster.cpus0.fuPool.FUList4.opList27

[system.cpu_cluster.cpus0.fuPool.FUList4.opList00]
type=OpDesc
eventq_index=0
opClass=SimdAdd
opLat=4
pipelined=true

[system.cpu_cluster.cpus0.fuPool.FUList4.opList01]
type=OpDesc
eventq_index=0
opClass=SimdAddAcc
opLat=4
pipelined=true

[system.cpu_cluster.cpus0.fuPool.FUList4.opList02]
type=OpDesc
eventq_index=0
opClass=SimdAlu
opLat=4
pipelined=true

[system.cpu_cluster.cpus0.fuPool.FUList4.opList03]
type=OpDesc
eventq_index=0
opClass=SimdCmp
opLat=4
pipelined=true

[system.cpu_cluster.cpus0.fuPool.FUList4.opList04]
type=OpDesc
eventq_index=0
opClass=SimdCvt
opLat=3
pipelined=true

[system.cpu_cluster.cpus0.fuPool.FUList4.opList05]
type=OpDesc
eventq_index=0
opClass=SimdMisc
opLat=3
pipelined=true

[system.cpu_cluster.cpus0.fuPool.FUList4.opList06]
type=OpDesc
eventq_index=0
opClass=SimdMult
opLat=5
pipelined=true

[system.cpu_cluster.cpus0.fuPool.FUList4.opList07]
type=OpDesc
eventq_index=0
opClass=SimdMultAcc
opLat=5
pipelined=true

[system.cpu_cluster.cpus0.fuPool.FUList4.opList08]
type=OpDesc
eventq_index=0
opClass=SimdShift
opLat=3
pipelined=true

[system.cpu_cluster.cpus0.fuPool.FUList4.opList09]
type=OpDesc
eventq_index=0
opClass=SimdShiftAcc
opLat=3
pipelined=true

[system.cpu_cluster.cpus0.fuPool.FUList4.opList10]
type=OpDesc
eventq_index=0
opClass=SimdSqrt
opLat=9
pipelined=true

[system.cpu_cluster.cpus0.fuPool.FUList4.opList11]
type=OpDesc
eventq_index=0
opClass=SimdFloatAdd
opLat=5
pipelined=true

[system.cpu_cluster.cpus0.fuPool.FUList4.opList12]
type=OpDesc
eventq_index=0
opClass=SimdFloatAlu
opLat=5
pipelined=true

[system.cpu_cluster.cpus0.fuPool.FUList4.opList13]
type=OpDesc
eventq_index=0
opClass=SimdFloatCmp
opLat=3
pipelined=true

[system.cpu_cluster.cpus0.fuPool.FUList4.opList14]
type=OpDesc
eventq_index=0
opClass=SimdFloatCvt
opLat=3
pipelined=true

[system.cpu_cluster.cpus0.fuPool.FUList4.opList15]
type=OpDesc
eventq_index=0
opClass=SimdFloatDiv
opLat=3
pipelined=true

[system.cpu_cluster.cpus0.fuPool.FUList4.opList16]
type=OpDesc
eventq_index=0
opClass=SimdFloatMisc
opLat=3
pipelined=true

[system.cpu_cluster.cpus0.fuPool.FUList4.opList17]
type=OpDesc
eventq_index=0
opClass=SimdFloatMult
opLat=3
pipelined=true

[system.cpu_cluster.cpus0.fuPool.FUList4.opList18]
type=OpDesc
eventq_index=0
opClass=SimdFloatMultAcc
opLat=5
pipelined=true

[system.cpu_cluster.cpus0.fuPool.FUList4.opList19]
type=OpDesc
eventq_index=0
opClass=SimdFloatSqrt
opLat=9
pipelined=true

[system.cpu_cluster.cpus0.fuPool.FUList4.opList20]
type=OpDesc
eventq_index=0
opClass=FloatAdd
opLat=5
pipelined=true

[system.cpu_cluster.cpus0.fuPool.FUList4.opList21]
type=OpDesc
eventq_index=0
opClass=FloatCmp
opLat=5
pipelined=true

[system.cpu_cluster.cpus0.fuPool.FUList4.opList22]
type=OpDesc
eventq_index=0
opClass=FloatCvt
opLat=5
pipelined=true

[system.cpu_cluster.cpus0.fuPool.FUList4.opList23]
type=OpDesc
eventq_index=0
opClass=FloatDiv
opLat=9
pipelined=false

[system.cpu_cluster.cpus0.fuPool.FUList4.opList24]
type=OpDesc
eventq_index=0
opClass=FloatSqrt
opLat=33
pipelined=false

[system.cpu_cluster.cpus0.fuPool.FUList4.opList25]
type=OpDesc
eventq_index=0
opClass=FloatMult
opLat=4
pipelined=true

[system.cpu_cluster.cpus0.fuPool.FUList4.opList26]
type=OpDesc
eventq_index=0
opClass=FloatMultAcc
opLat=5
pipelined=true

[system.cpu_cluster.cpus0.fuPool.FUList4.opList27]
type=OpDesc
eventq_index=0
opClass=FloatMisc
opLat=3
pipelined=true

[system.cpu_cluster.cpus0.icache]
type=Cache
children=power_model power_state replacement_policy tags
addr_ranges=0:18446744073709551615
assoc=3
clk_domain=system.cpu_cluster.clk_domain
clusivity=mostly_incl
compressor=Null
data_latency=1
demand_mshr_reserve=1
eventq_index=0
is_read_only=true
max_miss_count=0
move_contractions=true
mshrs=2
power_model=system.cpu_cluster.cpus0.icache.power_model
power_state=system.cpu_cluster.cpus0.icache.power_state
prefetch_on_access=false
prefetch_on_pf_hit=false
prefetcher=Null
replace_expansions=true
replacement_policy=system.cpu_cluster.cpus0.icache.replacement_policy
response_latency=1
sequential_access=false
size=49152
system=system
tag_latency=1
tags=system.cpu_cluster.cpus0.icache.tags
tgts_per_mshr=8
warmup_percentage=0
write_allocator=Null
write_buffers=8
writeback_clean=true
cpu_side=system.cpu_cluster.cpus0.icache_port
mem_side=system.cpu_cluster.toL2Bus.cpu_side_ports[0]

[system.cpu_cluster.cpus0.icache.power_model]
type=PowerModel
children=pm0 pm1 pm2 pm3
ambient_temp=298.15
eventq_index=0
pm=system.cpu_cluster.cpus0.icache.power_model.pm0 system.cpu_cluster.cpus0.icache.power_model.pm1 system.cpu_cluster.cpus0.icache.power_model.pm2 system.cpu_cluster.cpus0.icache.power_model.pm3
pm_type=All
subsystem=system.cpu_cluster

[system.cpu_cluster.cpus0.icache.power_model.pm0]
type=MathExprPowerModel
dyn=system.cpu_cluster.cpus0.icache.overallAccesses * 0.000018000
eventq_index=0
st=(voltage * 3)/10

[system.cpu_cluster.cpus0.icache.power_model.pm1]
type=MathExprPowerModel
dyn=0
eventq_index=0
st=0

[system.cpu_cluster.cpus0.icache.power_model.pm2]
type=MathExprPowerModel
dyn=0
eventq_index=0
st=0

[system.cpu_cluster.cpus0.icache.power_model.pm3]
type=MathExprPowerModel
dyn=0
eventq_index=0
st=0

[system.cpu_cluster.cpus0.icache.power_state]
type=PowerState
clk_gate_bins=20
clk_gate_max=1000000000000
clk_gate_min=1000
default_state=ON
eventq_index=0
leaders=
possible_states=

[system.cpu_cluster.cpus0.icache.replacement_policy]
type=LRURP
eventq_index=0

[system.cpu_cluster.cpus0.icache.tags]
type=BaseSetAssoc
children=indexing_policy power_state
assoc=3
block_size=64
clk_domain=system.cpu_cluster.clk_domain
entry_size=64
eventq_index=0
indexing_policy=system.cpu_cluster.cpus0.icache.tags.indexing_policy
power_model=
power_state=system.cpu_cluster.cpus0.icache.tags.power_state
replacement_policy=system.cpu_cluster.cpus0.icache.replacement_policy
sequential_access=false
size=49152
system=system
tag_latency=1
warmup_percentage=0

[system.cpu_cluster.cpus0.icache.tags.indexing_policy]
type=SetAssociative
assoc=3
entry_size=64
eventq_index=0
size=49152

[system.cpu_cluster.cpus0.icache.tags.power_state]
type=PowerState
clk_gate_bins=20
clk_gate_max=1000000000000
clk_gate_min=1000
default_state=UNDEFINED
eventq_index=0
leaders=
possible_states=

[system.cpu_cluster.cpus0.interrupts]
type=ArmInterrupts
eventq_index=0

[system.cpu_cluster.cpus0.isa]
type=ArmISA
children=release_se
decoderFlavor=Generic
eventq_index=0
fpsid=1090793632
id_aa64afr0_el1=0
id_aa64afr1_el1=0
id_aa64dfr0_el1=15790086
id_aa64dfr1_el1=0
id_aa64isar0_el1=268435456
id_aa64isar1_el1=16846864
id_aa64mmfr0_el1=15728642
id_aa64mmfr1_el1=1052704
id_aa64mmfr2_el1=65552
id_isar0=34607377
id_isar1=34677009
id_isar2=555950401
id_isar3=17899825
id_isar4=268501314
id_isar5=285212672
id_isar6=1
id_mmfr0=270536963
id_mmfr1=0
id_mmfr2=19070976
id_mmfr3=34611729
id_mmfr4=0
impdef_nop=false
midr=0
pmu=Null
release_se=system.cpu_cluster.cpus0.isa.release_se
sme_vl_se=1
sve_vl_se=1
system=system

[system.cpu_cluster.cpus0.isa.release_se]
type=ArmRelease
eventq_index=0
extensions=CRYPTO FEAT_LSE FEAT_RDM FEAT_F32MM FEAT_F64MM FEAT_SVE FEAT_I8MM FEAT_DOTPROD FEAT_FCMA FEAT_JSCVT FEAT_PAuth FEAT_FLAGM FEAT_FLAGM2 FEAT_SME TME

[system.cpu_cluster.cpus0.mmu]
type=ArmMMU
children=dtb dtb_walker itb itb_walker l2_shared stage2_dtb stage2_dtb_walker stage2_itb stage2_itb_walker
dtb=system.cpu_cluster.cpus0.mmu.dtb
dtb_walker=system.cpu_cluster.cpus0.mmu.dtb_walker
eventq_index=0
itb=system.cpu_cluster.cpus0.mmu.itb
itb_walker=system.cpu_cluster.cpus0.mmu.itb_walker
release_se=system.cpu_cluster.cpus0.isa.release_se
stage2_dtb=system.cpu_cluster.cpus0.mmu.stage2_dtb
stage2_dtb_walker=system.cpu_cluster.cpus0.mmu.stage2_dtb_walker
stage2_itb=system.cpu_cluster.cpus0.mmu.stage2_itb
stage2_itb_walker=system.cpu_cluster.cpus0.mmu.stage2_itb_walker
sys=system

[system.cpu_cluster.cpus0.mmu.dtb]
type=ArmTLB
entry_type=data
eventq_index=0
is_stage2=false
next_level=system.cpu_cluster.cpus0.mmu.l2_shared
partial_levels=
size=64
sys=system

[system.cpu_cluster.cpus0.mmu.dtb_walker]
type=ArmTableWalker
children=power_state
clk_domain=system.cpu_cluster.clk_domain
eventq_index=0
is_stage2=false
num_squash_per_cycle=2
power_model=
power_state=system.cpu_cluster.cpus0.mmu.dtb_walker.power_state
sys=system
port=system.cpu_cluster.toL2Bus.cpu_side_ports[3]

[system.cpu_cluster.cpus0.mmu.dtb_walker.power_state]
type=PowerState
clk_gate_bins=20
clk_gate_max=1000000000000
clk_gate_min=1000
default_state=UNDEFINED
eventq_index=0
leaders=
possible_states=

[system.cpu_cluster.cpus0.mmu.itb]
type=ArmTLB
entry_type=instruction
eventq_index=0
is_stage2=false
next_level=system.cpu_cluster.cpus0.mmu.l2_shared
partial_levels=
size=64
sys=system

[system.cpu_cluster.cpus0.mmu.itb_walker]
type=ArmTableWalker
children=power_state
clk_domain=system.cpu_cluster.clk_domain
eventq_index=0
is_stage2=false
num_squash_per_cycle=2
power_model=
power_state=system.cpu_cluster.cpus0.mmu.itb_walker.power_state
sys=system
port=system.cpu_cluster.toL2Bus.cpu_side_ports[2]

[system.cpu_cluster.cpus0.mmu.itb_walker.power_state]
type=PowerState
clk_gate_bins=20
clk_gate_max=1000000000000
clk_gate_min=1000
default_state=UNDEFINED
eventq_index=0
leaders=
possible_states=

[system.cpu_cluster.cpus0.mmu.l2_shared]
type=ArmTLB
entry_type=unified
eventq_index=0
is_stage2=false
next_level=Null
partial_levels=L2
size=1280
sys=system

[system.cpu_cluster.cpus0.mmu.stage2_dtb]
type=ArmTLB
entry_type=data
eventq_index=0
is_stage2=true
next_level=Null
partial_levels=
size=32
sys=system

[system.cpu_cluster.cpus0.mmu.stage2_dtb_walker]
type=ArmTableWalker
children=power_state
clk_domain=system.cpu_cluster.clk_domain
eventq_index=0
is_stage2=true
num_squash_per_cycle=2
power_model=
power_state=system.cpu_cluster.cpus0.mmu.stage2_dtb_walker.power_state
sys=system
port=system.cpu_cluster.toL2Bus.cpu_side_ports[5]

[system.cpu_cluster.cpus0.mmu.stage2_dtb_walker.power_state]
type=PowerState
clk_gate_bins=20
clk_gate_max=1000000000000
clk_gate_min=1000
default_state=UNDEFINED
eventq_index=0
leaders=
possible_states=

[system.cpu_cluster.cpus0.mmu.stage2_itb]
type=ArmTLB
entry_type=instruction
eventq_index=0
is_stage2=true
next_level=Null
partial_levels=
size=32
sys=system

[system.cpu_cluster.cpus0.mmu.stage2_itb_walker]
type=ArmTableWalker
children=power_state
clk_domain=system.cpu_cluster.clk_domain
eventq_index=0
is_stage2=true
num_squash_per_cycle=2
power_model=
power_state=system.cpu_cluster.cpus0.mmu.stage2_itb_walker.power_state
sys=system
port=system.cpu_cluster.toL2Bus.cpu_side_ports[4]

[system.cpu_cluster.cpus0.mmu.stage2_itb_walker.power_state]
type=PowerState
clk_gate_bins=20
clk_gate_max=1000000000000
clk_gate_min=1000
default_state=UNDEFINED
eventq_index=0
leaders=
possible_states=

[system.cpu_cluster.cpus0.power_model]
type=PowerModel
children=pm0 pm1 pm2 pm3
ambient_temp=298.15
eventq_index=0
pm=system.cpu_cluster.cpus0.power_model.pm0 system.cpu_cluster.cpus0.power_model.pm1 system.cpu_cluster.cpus0.power_model.pm2 system.cpu_cluster.cpus0.power_model.pm3
pm_type=All
subsystem=system.cpu_cluster

[system.cpu_cluster.cpus0.power_model.pm0]
type=MathExprPowerModel
dyn=((((system.cpu_cluster.cpus0.numCycles/simSeconds)/(1/(system.clk_domain.clock/1000000000000))/1000000) *((1/(system.clk_domain.clock/1000000000000))/1000000) * (system.voltage_domain.voltage*system.voltage_domain.voltage) * 0.000000000606992538845)*1000000000000)
eventq_index=0
st=((1 * (-681.604059986)) + ((1/(1500000000/1500000000)) * 0.117551170367) + (system.voltage_domain.voltage * 2277.16890778) + (((1/(1500000000/1500000000)) * system.voltage_domain.voltage) * (-0.491846201277)) + ((system.voltage_domain.voltage * system.voltage_domain.voltage) * (-2528.1574686)) + (((1/(1500000000/1500000000)) * system.voltage_domain.voltage*system.voltage_domain.voltage) * 0.645456768269) + ((system.voltage_domain.voltage * system.voltage_domain.voltage * system.voltage_domain.voltage) * 932.937276293) + (((1/(1500000000/1500000000)) * system.voltage_domain.voltage*system.voltage_domain.voltage*system.voltage_domain.voltage) * (-0.271180478671)))

[system.cpu_cluster.cpus0.power_model.pm1]
type=MathExprPowerModel
dyn=0
eventq_index=0
st=0

[system.cpu_cluster.cpus0.power_model.pm2]
type=MathExprPowerModel
dyn=0
eventq_index=0
st=0

[system.cpu_cluster.cpus0.power_model.pm3]
type=MathExprPowerModel
dyn=0
eventq_index=0
st=0

[system.cpu_cluster.cpus0.power_state]
type=PowerState
clk_gate_bins=20
clk_gate_max=1000000000000
clk_gate_min=1000
default_state=ON
eventq_index=0
leaders=
possible_states=ON CLK_GATED OFF

[system.cpu_cluster.cpus0.tracer]
type=ExeTracer
eventq_index=0

[system.cpu_cluster.cpus1]
type=BaseO3CPU
children=branchPred dcache decoder fuPool icache interrupts isa mmu power_model power_state tracer
LFSTSize=1024
LQEntries=16
LSQCheckLoads=true
LSQDepCheckShift=0
SQEntries=16
SSITSize=1024
activity=0
backComSize=5
branchPred=system.cpu_cluster.cpus1.branchPred
cacheLoadPorts=200
cacheStorePorts=200
checker=Null
clk_domain=system.cpu_cluster.clk_domain
commitToDecodeDelay=1
commitToFetchDelay=1
commitToIEWDelay=1
commitToRenameDelay=1
commitWidth=8
cpu_id=1
decodeToFetchDelay=1
decodeToRenameDelay=1
decodeWidth=3
decoder=system.cpu_cluster.cpus1.decoder
dispatchWidth=2
do_checkpoint_insts=true
do_statistics_insts=true
eventq_index=0
fetchBufferSize=16
fetchQueueSize=32
fetchToDecodeDelay=3
fetchTrapLatency=1
fetchWidth=5
forwardComSize=5
fuPool=system.cpu_cluster.cpus1.fuPool
function_trace=false
function_trace_start=0
iewToCommitDelay=1
iewToDecodeDelay=1
iewToFetchDelay=1
iewToRenameDelay=1
interrupts=system.cpu_cluster.cpus1.interrupts
isa=system.cpu_cluster.cpus1.isa
issueToExecuteDelay=1
issueWidth=1
max_insts_all_threads=0
max_insts_any_thread=0
mmu=system.cpu_cluster.cpus1.mmu
needsTSO=false
numIQEntries=32
numPhysCCRegs=640
numPhysFloatRegs=192
numPhysIntRegs=128
numPhysMatRegs=2
numPhysVecPredRegs=32
numPhysVecRegs=48
numROBEntries=40
numRobs=1
numThreads=1
power_gating_on_idle=false
power_model=system.cpu_cluster.cpus1.power_model
power_state=system.cpu_cluster.cpus1.power_state
progress_interval=0
pwr_gating_latency=300
renameToDecodeDelay=1
renameToFetchDelay=1
renameToIEWDelay=1
renameToROBDelay=1
renameWidth=3
simpoint_start_insts=
smtCommitPolicy=RoundRobin
smtFetchPolicy=RoundRobin
smtIQPolicy=Partitioned
smtIQThreshold=100
smtLSQPolicy=Partitioned
smtLSQThreshold=100
smtNumFetchingThreads=1
smtROBPolicy=Partitioned
smtROBThreshold=100
socket_id=0
squashWidth=8
store_set_clear_period=250000
switched_out=false
syscallRetryLatency=10000
system=system
tracer=system.cpu_cluster.cpus1.tracer
trapLatency=13
wbWidth=2
workload=
dcache_port=system.cpu_cluster.cpus1.dcache.cpu_side
icache_port=system.cpu_cluster.cpus1.icache.cpu_side

[system.cpu_cluster.cpus1.branchPred]
type=BiModeBP
children=indirectBranchPred
BTBEntries=2048
BTBTagSize=18
RASSize=16
choiceCtrBits=2
choicePredictorSize=8192
eventq_index=0
globalCtrBits=2
globalPredictorSize=8192
indirectBranchPred=system.cpu_cluster.cpus1.branchPred.indirectBranchPred
instShiftAmt=2
numThreads=1

[system.cpu_cluster.cpus1.branchPred.indirectBranchPred]
type=SimpleIndirectPredictor
eventq_index=0
indirectGHRBits=13
indirectHashGHR=true
indirectHashTargets=true
indirectPathLength=3
indirectSets=256
indirectTagSize=16
indirectWays=2
instShiftAmt=2
numThreads=1

[system.cpu_cluster.cpus1.dcache]
type=Cache
children=power_model power_state replacement_policy tags
addr_ranges=0:18446744073709551615
assoc=2
clk_domain=system.cpu_cluster.clk_domain
clusivity=mostly_incl
compressor=Null
data_latency=2
demand_mshr_reserve=1
eventq_index=0
is_read_only=false
max_miss_count=0
move_contractions=true
mshrs=6
power_model=system.cpu_cluster.cpus1.dcache.power_model
power_state=system.cpu_cluster.cpus1.dcache.power_state
prefetch_on_access=false
prefetch_on_pf_hit=false
prefetcher=Null
replace_expansions=true
replacement_policy=system.cpu_cluster.cpus1.dcache.replacement_policy
response_latency=2
sequential_access=false
size=32768
system=system
tag_latency=2
tags=system.cpu_cluster.cpus1.dcache.tags
tgts_per_mshr=8
warmup_percentage=0
write_allocator=Null
write_buffers=16
writeback_clean=true
cpu_side=system.cpu_cluster.cpus1.dcache_port
mem_side=system.cpu_cluster.toL2Bus.cpu_side_ports[7]

[system.cpu_cluster.cpus1.dcache.power_model]
type=PowerModel
children=pm0 pm1 pm2 pm3
ambient_temp=298.15
eventq_index=0
pm=system.cpu_cluster.cpus1.dcache.power_model.pm0 system.cpu_cluster.cpus1.dcache.power_model.pm1 system.cpu_cluster.cpus1.dcache.power_model.pm2 system.cpu_cluster.cpus1.dcache.power_model.pm3
pm_type=All
subsystem=system.cpu_cluster

[system.cpu_cluster.cpus1.dcache.power_model.pm0]
type=MathExprPowerModel
dyn=system.cpu_cluster.cpus1.dcache.overallAccesses * 0.000018000
eventq_index=0
st=(voltage * 3)/10

[system.cpu_cluster.cpus1.dcache.power_model.pm1]
type=MathExprPowerModel
dyn=0
eventq_index=0
st=0

[system.cpu_cluster.cpus1.dcache.power_model.pm2]
type=MathExprPowerModel
dyn=0
eventq_index=0
st=0

[system.cpu_cluster.cpus1.dcache.power_model.pm3]
type=MathExprPowerModel
dyn=0
eventq_index=0
st=0

[system.cpu_cluster.cpus1.dcache.power_state]
type=PowerState
clk_gate_bins=20
clk_gate_max=1000000000000
clk_gate_min=1000
default_state=ON
eventq_index=0
leaders=
possible_states=

[system.cpu_cluster.cpus1.dcache.replacement_policy]
type=LRURP
eventq_index=0

[system.cpu_cluster.cpus1.dcache.tags]
type=BaseSetAssoc
children=indexing_policy power_state
assoc=2
block_size=64
clk_domain=system.cpu_cluster.clk_domain
entry_size=64
eventq_index=0
indexing_policy=system.cpu_cluster.cpus1.dcache.tags.indexing_policy
power_model=
power_state=system.cpu_cluster.cpus1.dcache.tags.power_state
replacement_policy=system.cpu_cluster.cpus1.dcache.replacement_policy
sequential_access=false
size=32768
system=system
tag_latency=2
warmup_percentage=0

[system.cpu_cluster.cpus1.dcache.tags.indexing_policy]
type=SetAssociative
assoc=2
entry_size=64
eventq_index=0
size=32768

[system.cpu_cluster.cpus1.dcache.tags.power_state]
type=PowerState
clk_gate_bins=20
clk_gate_max=1000000000000
clk_gate_min=1000
default_state=UNDEFINED
eventq_index=0
leaders=
possible_states=

[system.cpu_cluster.cpus1.decoder]
type=ArmDecoder
dvm_enabled=false
eventq_index=0
isa=system.cpu_cluster.cpus1.isa

[system.cpu_cluster.cpus1.fuPool]
type=FUPool
children=FUList0 FUList1 FUList2 FUList3 FUList4
FUList=system.cpu_cluster.cpus1.fuPool.FUList0 system.cpu_cluster.cpus1.fuPool.FUList1 system.cpu_cluster.cpus1.fuPool.FUList2 system.cpu_cluster.cpus1.fuPool.FUList3 system.cpu_cluster.cpus1.fuPool.FUList4
eventq_index=0
