[root]
type=Root
children=system
eventq_index=0
full_system=true
sim_quantum=0
time_sync_enable=false
time_sync_period=150000000
time_sync_spin_threshold=150000

[system]
type=ArmSystem
children=clk_domain cpu_cluster dmabridge dvfs_handler iobridge iobus mem_ctrls membus pci_devices realview release terminal vncserver voltage_domain workload
auto_reset_addr=true
auto_unlink_shared_backstore=false
cache_line_size=64
eventq_index=0
exit_on_work_items=false
gic_cpu_addr=0
have_large_asid_64=false
highest_el_is_64=true
init_param=0
m5ops_base=268500992
mem_mode=atomic
mem_ranges=2147483648:6442450944
memories=system.mem_ctrls.dram system.realview.bootmem system.realview.flash0 system.realview.flash1 system.realview.non_trusted_sram system.realview.trusted_dram system.realview.trusted_sram system.realview.vram
mmap_using_noreserve=false
multi_proc=true
multi_thread=false
num_work_ids=16
phys_addr_range_64=40
readfile=
redirect_paths=
release=system.release
reset_addr=0
semihosting=Null
shadow_rom_ranges=
shared_backstore=
sme_vl=1
sve_vl=1
symbolfile=
thermal_components=
thermal_model=Null
work_begin_ckpt_count=0
work_begin_cpu_id_exit=-1
work_begin_exit_count=0
work_cpus_ckpt_count=0
work_end_ckpt_count=0
work_end_exit_count=0
work_item_id=-1
workload=system.workload
system_port=system.membus.cpu_side_ports[2]

[system.clk_domain]
type=SrcClockDomain
clock=1
domain_id=-1
eventq_index=0
init_perf_level=0
voltage_domain=system.voltage_domain

[system.cpu_cluster]
type=CpuCluster
children=clk_domain cpus0 cpus1 cpus2 cpus3 voltage_domain
clk_domain=system.cpu_cluster.clk_domain
eventq_index=0
thermal_domain=Null
voltage_domain=system.cpu_cluster.voltage_domain

[system.cpu_cluster.clk_domain]
type=SrcClockDomain
clock=1
domain_id=0
eventq_index=0
init_perf_level=0
voltage_domain=system.cpu_cluster.voltage_domain

[system.cpu_cluster.cpus0]
type=BaseAtomicSimpleCPU
children=decoder interrupts isa mmu power_state tracer
branchPred=Null
checker=Null
clk_domain=system.cpu_cluster.clk_domain
cpu_id=0
decoder=system.cpu_cluster.cpus0.decoder
do_checkpoint_insts=true
do_statistics_insts=true
eventq_index=0
function_trace=false
function_trace_start=0
interrupts=system.cpu_cluster.cpus0.interrupts
isa=system.cpu_cluster.cpus0.isa
max_insts_all_threads=0
max_insts_any_thread=0
mmu=system.cpu_cluster.cpus0.mmu
numThreads=1
power_gating_on_idle=false
power_model=
power_state=system.cpu_cluster.cpus0.power_state
progress_interval=0
pwr_gating_latency=300
simpoint_start_insts=
simulate_data_stalls=false
simulate_inst_stalls=false
socket_id=0
switched_out=false
syscallRetryLatency=10000
system=system
tracer=system.cpu_cluster.cpus0.tracer
width=1
workload=
dcache_port=system.membus.cpu_side_ports[4]
icache_port=system.membus.cpu_side_ports[3]

[system.cpu_cluster.cpus0.decoder]
type=ArmDecoder
dvm_enabled=false
eventq_index=0
isa=system.cpu_cluster.cpus0.isa

[system.cpu_cluster.cpus0.interrupts]
type=ArmInterrupts
eventq_index=0

[system.cpu_cluster.cpus0.isa]
type=ArmISA
children=release_se
decoderFlavor=Generic
eventq_index=0
fpsid=1090793632
id_aa64afr0_el1=0
id_aa64afr1_el1=0
id_aa64dfr0_el1=15790086
id_aa64dfr1_el1=0
id_aa64isar0_el1=268435456
id_aa64isar1_el1=16846864
id_aa64mmfr0_el1=15728642
id_aa64mmfr1_el1=1052704
id_aa64mmfr2_el1=65552
id_isar0=34607377
id_isar1=34677009
id_isar2=555950401
id_isar3=17899825
id_isar4=268501314
id_isar5=285212672
id_isar6=1
id_mmfr0=270536963
id_mmfr1=0
id_mmfr2=19070976
id_mmfr3=34611729
id_mmfr4=0
impdef_nop=false
midr=0
pmu=Null
release_se=system.cpu_cluster.cpus0.isa.release_se
sme_vl_se=1
sve_vl_se=1
system=system

[system.cpu_cluster.cpus0.isa.release_se]
type=ArmRelease
eventq_index=0
extensions=CRYPTO FEAT_LSE FEAT_RDM FEAT_F32MM FEAT_F64MM FEAT_SVE FEAT_I8MM FEAT_DOTPROD FEAT_FCMA FEAT_JSCVT FEAT_PAuth FEAT_FLAGM FEAT_FLAGM2 FEAT_SME TME

[system.cpu_cluster.cpus0.mmu]
type=ArmMMU
children=dtb dtb_walker itb itb_walker l2_shared stage2_dtb stage2_dtb_walker stage2_itb stage2_itb_walker
dtb=system.cpu_cluster.cpus0.mmu.dtb
dtb_walker=system.cpu_cluster.cpus0.mmu.dtb_walker
eventq_index=0
itb=system.cpu_cluster.cpus0.mmu.itb
itb_walker=system.cpu_cluster.cpus0.mmu.itb_walker
release_se=system.cpu_cluster.cpus0.isa.release_se
stage2_dtb=system.cpu_cluster.cpus0.mmu.stage2_dtb
stage2_dtb_walker=system.cpu_cluster.cpus0.mmu.stage2_dtb_walker
stage2_itb=system.cpu_cluster.cpus0.mmu.stage2_itb
stage2_itb_walker=system.cpu_cluster.cpus0.mmu.stage2_itb_walker
sys=system

[system.cpu_cluster.cpus0.mmu.dtb]
type=ArmTLB
entry_type=data
eventq_index=0
is_stage2=false
next_level=system.cpu_cluster.cpus0.mmu.l2_shared
partial_levels=
size=64
sys=system

[system.cpu_cluster.cpus0.mmu.dtb_walker]
type=ArmTableWalker
children=power_state
clk_domain=system.cpu_cluster.clk_domain
eventq_index=0
is_stage2=false
num_squash_per_cycle=2
power_model=
power_state=system.cpu_cluster.cpus0.mmu.dtb_walker.power_state
sys=system
port=system.membus.cpu_side_ports[6]

[system.cpu_cluster.cpus0.mmu.dtb_walker.power_state]
type=PowerState
clk_gate_bins=20
clk_gate_max=1500000000
clk_gate_min=2
default_state=UNDEFINED
eventq_index=0
leaders=
possible_states=

[system.cpu_cluster.cpus0.mmu.itb]
type=ArmTLB
entry_type=instruction
eventq_index=0
is_stage2=false
next_level=system.cpu_cluster.cpus0.mmu.l2_shared
partial_levels=
size=64
sys=system

[system.cpu_cluster.cpus0.mmu.itb_walker]
type=ArmTableWalker
children=power_state
clk_domain=system.cpu_cluster.clk_domain
eventq_index=0
is_stage2=false
num_squash_per_cycle=2
power_model=
power_state=system.cpu_cluster.cpus0.mmu.itb_walker.power_state
sys=system
port=system.membus.cpu_side_ports[5]

[system.cpu_cluster.cpus0.mmu.itb_walker.power_state]
type=PowerState
clk_gate_bins=20
clk_gate_max=1500000000
clk_gate_min=2
default_state=UNDEFINED
eventq_index=0
leaders=
possible_states=

[system.cpu_cluster.cpus0.mmu.l2_shared]
type=ArmTLB
entry_type=unified
eventq_index=0
is_stage2=false
next_level=Null
partial_levels=L2
size=1280
sys=system

[system.cpu_cluster.cpus0.mmu.stage2_dtb]
type=ArmTLB
entry_type=data
eventq_index=0
is_stage2=true
next_level=Null
partial_levels=
size=32
sys=system

[system.cpu_cluster.cpus0.mmu.stage2_dtb_walker]
type=ArmTableWalker
children=power_state
clk_domain=system.cpu_cluster.clk_domain
eventq_index=0
is_stage2=true
num_squash_per_cycle=2
power_model=
power_state=system.cpu_cluster.cpus0.mmu.stage2_dtb_walker.power_state
sys=system
port=system.membus.cpu_side_ports[8]

[system.cpu_cluster.cpus0.mmu.stage2_dtb_walker.power_state]
type=PowerState
clk_gate_bins=20
clk_gate_max=1500000000
clk_gate_min=2
default_state=UNDEFINED
eventq_index=0
leaders=
possible_states=

[system.cpu_cluster.cpus0.mmu.stage2_itb]
type=ArmTLB
entry_type=instruction
eventq_index=0
is_stage2=true
next_level=Null
partial_levels=
size=32
sys=system

[system.cpu_cluster.cpus0.mmu.stage2_itb_walker]
type=ArmTableWalker
children=power_state
clk_domain=system.cpu_cluster.clk_domain
eventq_index=0
is_stage2=true
num_squash_per_cycle=2
power_model=
power_state=system.cpu_cluster.cpus0.mmu.stage2_itb_walker.power_state
sys=system
port=system.membus.cpu_side_ports[7]

[system.cpu_cluster.cpus0.mmu.stage2_itb_walker.power_state]
type=PowerState
clk_gate_bins=20
clk_gate_max=1500000000
clk_gate_min=2
default_state=UNDEFINED
eventq_index=0
leaders=
possible_states=

[system.cpu_cluster.cpus0.power_state]
type=PowerState
clk_gate_bins=20
clk_gate_max=1500000000
clk_gate_min=2
default_state=UNDEFINED
eventq_index=0
leaders=
possible_states=ON CLK_GATED OFF

[system.cpu_cluster.cpus0.tracer]
type=ExeTracer
eventq_index=0

[system.cpu_cluster.cpus1]
type=BaseAtomicSimpleCPU
children=decoder interrupts isa mmu power_state tracer
branchPred=Null
checker=Null
clk_domain=system.cpu_cluster.clk_domain
cpu_id=1
decoder=system.cpu_cluster.cpus1.decoder
do_checkpoint_insts=true
do_statistics_insts=true
eventq_index=0
function_trace=false
function_trace_start=0
interrupts=system.cpu_cluster.cpus1.interrupts
isa=system.cpu_cluster.cpus1.isa
max_insts_all_threads=0
max_insts_any_thread=0
mmu=system.cpu_cluster.cpus1.mmu
numThreads=1
power_gating_on_idle=false
power_model=
power_state=system.cpu_cluster.cpus1.power_state
progress_interval=0
pwr_gating_latency=300
simpoint_start_insts=
simulate_data_stalls=false
simulate_inst_stalls=false
socket_id=0
switched_out=false
syscallRetryLatency=10000
system=system
tracer=system.cpu_cluster.cpus1.tracer
width=1
workload=
dcache_port=system.membus.cpu_side_ports[10]
icache_port=system.membus.cpu_side_ports[9]

[system.cpu_cluster.cpus1.decoder]
type=ArmDecoder
dvm_enabled=false
eventq_index=0
isa=system.cpu_cluster.cpus1.isa

[system.cpu_cluster.cpus1.interrupts]
type=ArmInterrupts
eventq_index=0

[system.cpu_cluster.cpus1.isa]
type=ArmISA
children=release_se
decoderFlavor=Generic
eventq_index=0
fpsid=1090793632
id_aa64afr0_el1=0
id_aa64afr1_el1=0
id_aa64dfr0_el1=15790086
id_aa64dfr1_el1=0
id_aa64isar0_el1=268435456
id_aa64isar1_el1=16846864
id_aa64mmfr0_el1=15728642
id_aa64mmfr1_el1=1052704
id_aa64mmfr2_el1=65552
id_isar0=34607377
id_isar1=34677009
id_isar2=555950401
id_isar3=17899825
id_isar4=268501314
id_isar5=285212672
id_isar6=1
id_mmfr0=270536963
id_mmfr1=0
id_mmfr2=19070976
id_mmfr3=34611729
id_mmfr4=0
impdef_nop=false
midr=0
pmu=Null
release_se=system.cpu_cluster.cpus1.isa.release_se
sme_vl_se=1
sve_vl_se=1
system=system

[system.cpu_cluster.cpus1.isa.release_se]
type=ArmRelease
eventq_index=0
extensions=CRYPTO FEAT_LSE FEAT_RDM FEAT_F32MM FEAT_F64MM FEAT_SVE FEAT_I8MM FEAT_DOTPROD FEAT_FCMA FEAT_JSCVT FEAT_PAuth FEAT_FLAGM FEAT_FLAGM2 FEAT_SME TME

[system.cpu_cluster.cpus1.mmu]
type=ArmMMU
children=dtb dtb_walker itb itb_walker l2_shared stage2_dtb stage2_dtb_walker stage2_itb stage2_itb_walker
dtb=system.cpu_cluster.cpus1.mmu.dtb
dtb_walker=system.cpu_cluster.cpus1.mmu.dtb_walker
eventq_index=0
itb=system.cpu_cluster.cpus1.mmu.itb
itb_walker=system.cpu_cluster.cpus1.mmu.itb_walker
release_se=system.cpu_cluster.cpus1.isa.release_se
stage2_dtb=system.cpu_cluster.cpus1.mmu.stage2_dtb
stage2_dtb_walker=system.cpu_cluster.cpus1.mmu.stage2_dtb_walker
stage2_itb=system.cpu_cluster.cpus1.mmu.stage2_itb
stage2_itb_walker=system.cpu_cluster.cpus1.mmu.stage2_itb_walker
sys=system

[system.cpu_cluster.cpus1.mmu.dtb]
type=ArmTLB
entry_type=data
eventq_index=0
is_stage2=false
next_level=system.cpu_cluster.cpus1.mmu.l2_shared
partial_levels=
size=64
sys=system

[system.cpu_cluster.cpus1.mmu.dtb_walker]
type=ArmTableWalker
children=power_state
clk_domain=system.cpu_cluster.clk_domain
eventq_index=0
is_stage2=false
num_squash_per_cycle=2
power_model=
power_state=system.cpu_cluster.cpus1.mmu.dtb_walker.power_state
sys=system
port=system.membus.cpu_side_ports[12]

[system.cpu_cluster.cpus1.mmu.dtb_walker.power_state]
type=PowerState
clk_gate_bins=20
clk_gate_max=1500000000
clk_gate_min=2
default_state=UNDEFINED
eventq_index=0
leaders=
possible_states=

[system.cpu_cluster.cpus1.mmu.itb]
type=ArmTLB
entry_type=instruction
eventq_index=0
is_stage2=false
next_level=system.cpu_cluster.cpus1.mmu.l2_shared
partial_levels=
size=64
sys=system

[system.cpu_cluster.cpus1.mmu.itb_walker]
type=ArmTableWalker
children=power_state
clk_domain=system.cpu_cluster.clk_domain
eventq_index=0
is_stage2=false
num_squash_per_cycle=2
power_model=
power_state=system.cpu_cluster.cpus1.mmu.itb_walker.power_state
sys=system
port=system.membus.cpu_side_ports[11]

[system.cpu_cluster.cpus1.mmu.itb_walker.power_state]
type=PowerState
clk_gate_bins=20
clk_gate_max=1500000000
clk_gate_min=2
default_state=UNDEFINED
eventq_index=0
leaders=
possible_states=

[system.cpu_cluster.cpus1.mmu.l2_shared]
type=ArmTLB
entry_type=unified
eventq_index=0
is_stage2=false
next_level=Null
partial_levels=L2
size=1280
sys=system

[system.cpu_cluster.cpus1.mmu.stage2_dtb]
type=ArmTLB
entry_type=data
eventq_index=0
is_stage2=true
next_level=Null
partial_levels=
size=32
sys=system

[system.cpu_cluster.cpus1.mmu.stage2_dtb_walker]
type=ArmTableWalker
children=power_state
clk_domain=system.cpu_cluster.clk_domain
eventq_index=0
is_stage2=true
num_squash_per_cycle=2
power_model=
power_state=system.cpu_cluster.cpus1.mmu.stage2_dtb_walker.power_state
sys=system
port=system.membus.cpu_side_ports[14]

[system.cpu_cluster.cpus1.mmu.stage2_dtb_walker.power_state]
type=PowerState
clk_gate_bins=20
clk_gate_max=1500000000
clk_gate_min=2
default_state=UNDEFINED
eventq_index=0
leaders=
possible_states=

[system.cpu_cluster.cpus1.mmu.stage2_itb]
type=ArmTLB
entry_type=instruction
eventq_index=0
is_stage2=true
next_level=Null
partial_levels=
size=32
sys=system

[system.cpu_cluster.cpus1.mmu.stage2_itb_walker]
type=ArmTableWalker
children=power_state
clk_domain=system.cpu_cluster.clk_domain
eventq_index=0
is_stage2=true
num_squash_per_cycle=2
power_model=
power_state=system.cpu_cluster.cpus1.mmu.stage2_itb_walker.power_state
sys=system
port=system.membus.cpu_side_ports[13]

[system.cpu_cluster.cpus1.mmu.stage2_itb_walker.power_state]
type=PowerState
clk_gate_bins=20
clk_gate_max=1500000000
clk_gate_min=2
default_state=UNDEFINED
eventq_index=0
leaders=
possible_states=

[system.cpu_cluster.cpus1.power_state]
type=PowerState
clk_gate_bins=20
clk_gate_max=1500000000
clk_gate_min=2
default_state=UNDEFINED
eventq_index=0
leaders=
possible_states=ON CLK_GATED OFF

[system.cpu_cluster.cpus1.tracer]
type=ExeTracer
eventq_index=0

[system.cpu_cluster.cpus2]
type=BaseAtomicSimpleCPU
children=decoder interrupts isa mmu power_state tracer
branchPred=Null
checker=Null
clk_domain=system.cpu_cluster.clk_domain
cpu_id=2
decoder=system.cpu_cluster.cpus2.decoder
do_checkpoint_insts=true
do_statistics_insts=true
eventq_index=0
function_trace=false
function_trace_start=0
interrupts=system.cpu_cluster.cpus2.interrupts
isa=system.cpu_cluster.cpus2.isa
max_insts_all_threads=0
max_insts_any_thread=0
mmu=system.cpu_cluster.cpus2.mmu
numThreads=1
power_gating_on_idle=false
power_model=
power_state=system.cpu_cluster.cpus2.power_state
progress_interval=0
pwr_gating_latency=300
simpoint_start_insts=
simulate_data_stalls=false
simulate_inst_stalls=false
socket_id=0
switched_out=false
syscallRetryLatency=10000
system=system
tracer=system.cpu_cluster.cpus2.tracer
width=1
workload=
dcache_port=system.membus.cpu_side_ports[16]
icache_port=system.membus.cpu_side_ports[15]

[system.cpu_cluster.cpus2.decoder]
type=ArmDecoder
dvm_enabled=false
eventq_index=0
isa=system.cpu_cluster.cpus2.isa

[system.cpu_cluster.cpus2.interrupts]
type=ArmInterrupts
eventq_index=0

[system.cpu_cluster.cpus2.isa]
type=ArmISA
children=release_se
decoderFlavor=Generic
eventq_index=0
fpsid=1090793632
id_aa64afr0_el1=0
id_aa64afr1_el1=0
id_aa64dfr0_el1=15790086
id_aa64dfr1_el1=0
id_aa64isar0_el1=268435456
id_aa64isar1_el1=16846864
id_aa64mmfr0_el1=15728642
id_aa64mmfr1_el1=1052704
id_aa64mmfr2_el1=65552
id_isar0=34607377
id_isar1=34677009
id_isar2=555950401
id_isar3=17899825
id_isar4=268501314
id_isar5=285212672
id_isar6=1
id_mmfr0=270536963
id_mmfr1=0
id_mmfr2=19070976
id_mmfr3=34611729
id_mmfr4=0
impdef_nop=false
midr=0
pmu=Null
release_se=system.cpu_cluster.cpus2.isa.release_se
sme_vl_se=1
sve_vl_se=1
system=system

[system.cpu_cluster.cpus2.isa.release_se]
type=ArmRelease
eventq_index=0
extensions=CRYPTO FEAT_LSE FEAT_RDM FEAT_F32MM FEAT_F64MM FEAT_SVE FEAT_I8MM FEAT_DOTPROD FEAT_FCMA FEAT_JSCVT FEAT_PAuth FEAT_FLAGM FEAT_FLAGM2 FEAT_SME TME

[system.cpu_cluster.cpus2.mmu]
type=ArmMMU
children=dtb dtb_walker itb itb_walker l2_shared stage2_dtb stage2_dtb_walker stage2_itb stage2_itb_walker
dtb=system.cpu_cluster.cpus2.mmu.dtb
dtb_walker=system.cpu_cluster.cpus2.mmu.dtb_walker
eventq_index=0
itb=system.cpu_cluster.cpus2.mmu.itb
itb_walker=system.cpu_cluster.cpus2.mmu.itb_walker
release_se=system.cpu_cluster.cpus2.isa.release_se
stage2_dtb=system.cpu_cluster.cpus2.mmu.stage2_dtb
stage2_dtb_walker=system.cpu_cluster.cpus2.mmu.stage2_dtb_walker
stage2_itb=system.cpu_cluster.cpus2.mmu.stage2_itb
stage2_itb_walker=system.cpu_cluster.cpus2.mmu.stage2_itb_walker
sys=system

[system.cpu_cluster.cpus2.mmu.dtb]
type=ArmTLB
entry_type=data
eventq_index=0
is_stage2=false
next_level=system.cpu_cluster.cpus2.mmu.l2_shared
partial_levels=
size=64
sys=system

[system.cpu_cluster.cpus2.mmu.dtb_walker]
type=ArmTableWalker
children=power_state
clk_domain=system.cpu_cluster.clk_domain
eventq_index=0
is_stage2=false
num_squash_per_cycle=2
power_model=
power_state=system.cpu_cluster.cpus2.mmu.dtb_walker.power_state
sys=system
port=system.membus.cpu_side_ports[18]

[system.cpu_cluster.cpus2.mmu.dtb_walker.power_state]
type=PowerState
clk_gate_bins=20
clk_gate_max=1500000000
clk_gate_min=2
default_state=UNDEFINED
eventq_index=0
leaders=
possible_states=

[system.cpu_cluster.cpus2.mmu.itb]
type=ArmTLB
entry_type=instruction
eventq_index=0
is_stage2=false
next_level=system.cpu_cluster.cpus2.mmu.l2_shared
partial_levels=
size=64
sys=system

[system.cpu_cluster.cpus2.mmu.itb_walker]
type=ArmTableWalker
children=power_state
clk_domain=system.cpu_cluster.clk_domain
eventq_index=0
is_stage2=false
num_squash_per_cycle=2
power_model=
power_state=system.cpu_cluster.cpus2.mmu.itb_walker.power_state
sys=system
port=system.membus.cpu_side_ports[17]

[system.cpu_cluster.cpus2.mmu.itb_walker.power_state]
type=PowerState
clk_gate_bins=20
clk_gate_max=1500000000
clk_gate_min=2
default_state=UNDEFINED
eventq_index=0
leaders=
possible_states=

[system.cpu_cluster.cpus2.mmu.l2_shared]
type=ArmTLB
entry_type=unified
eventq_index=0
is_stage2=false
next_level=Null
partial_levels=L2
size=1280
sys=system

[system.cpu_cluster.cpus2.mmu.stage2_dtb]
type=ArmTLB
entry_type=data
eventq_index=0
is_stage2=true
next_level=Null
partial_levels=
size=32
sys=system

[system.cpu_cluster.cpus2.mmu.stage2_dtb_walker]
type=ArmTableWalker
children=power_state
clk_domain=system.cpu_cluster.clk_domain
eventq_index=0
is_stage2=true
num_squash_per_cycle=2
power_model=
power_state=system.cpu_cluster.cpus2.mmu.stage2_dtb_walker.power_state
sys=system
port=system.membus.cpu_side_ports[20]

[system.cpu_cluster.cpus2.mmu.stage2_dtb_walker.power_state]
type=PowerState
clk_gate_bins=20
clk_gate_max=1500000000
clk_gate_min=2
default_state=UNDEFINED
eventq_index=0
leaders=
possible_states=

[system.cpu_cluster.cpus2.mmu.stage2_itb]
type=ArmTLB
entry_type=instruction
eventq_index=0
is_stage2=true
next_level=Null
partial_levels=
size=32
sys=system

[system.cpu_cluster.cpus2.mmu.stage2_itb_walker]
type=ArmTableWalker
children=power_state
clk_domain=system.cpu_cluster.clk_domain
eventq_index=0
is_stage2=true
num_squash_per_cycle=2
power_model=
power_state=system.cpu_cluster.cpus2.mmu.stage2_itb_walker.power_state
sys=system
port=system.membus.cpu_side_ports[19]

[system.cpu_cluster.cpus2.mmu.stage2_itb_walker.power_state]
type=PowerState
clk_gate_bins=20
clk_gate_max=1500000000
clk_gate_min=2
default_state=UNDEFINED
eventq_index=0
leaders=
possible_states=

[system.cpu_cluster.cpus2.power_state]
type=PowerState
clk_gate_bins=20
clk_gate_max=1500000000
clk_gate_min=2
default_state=UNDEFINED
eventq_index=0
leaders=
possible_states=ON CLK_GATED OFF

[system.cpu_cluster.cpus2.tracer]
type=ExeTracer
eventq_index=0

[system.cpu_cluster.cpus3]
type=BaseAtomicSimpleCPU
children=decoder interrupts isa mmu power_state tracer
branchPred=Null
checker=Null
clk_domain=system.cpu_cluster.clk_domain
cpu_id=3
decoder=system.cpu_cluster.cpus3.decoder
do_checkpoint_insts=true
do_statistics_insts=true
eventq_index=0
function_trace=false
function_trace_start=0
interrupts=system.cpu_cluster.cpus3.interrupts
isa=system.cpu_cluster.cpus3.isa
max_insts_all_threads=0
max_insts_any_thread=0
mmu=system.cpu_cluster.cpus3.mmu
numThreads=1
power_gating_on_idle=false
power_model=
power_state=system.cpu_cluster.cpus3.power_state
progress_interval=0
pwr_gating_latency=300
simpoint_start_insts=
simulate_data_stalls=false
simulate_inst_stalls=false
socket_id=0
switched_out=false
syscallRetryLatency=10000
system=system
tracer=system.cpu_cluster.cpus3.tracer
width=1
workload=
dcache_port=system.membus.cpu_side_ports[22]
icache_port=system.membus.cpu_side_ports[21]

[system.cpu_cluster.cpus3.decoder]
type=ArmDecoder
dvm_enabled=false
eventq_index=0
isa=system.cpu_cluster.cpus3.isa

[system.cpu_cluster.cpus3.interrupts]
type=ArmInterrupts
eventq_index=0

[system.cpu_cluster.cpus3.isa]
type=ArmISA
children=release_se
decoderFlavor=Generic
eventq_index=0
fpsid=1090793632
id_aa64afr0_el1=0
id_aa64afr1_el1=0
id_aa64dfr0_el1=15790086
id_aa64dfr1_el1=0
id_aa64isar0_el1=268435456
id_aa64isar1_el1=16846864
id_aa64mmfr0_el1=15728642
id_aa64mmfr1_el1=1052704
id_aa64mmfr2_el1=65552
id_isar0=34607377
id_isar1=34677009
id_isar2=555950401
id_isar3=17899825
id_isar4=268501314
id_isar5=285212672
id_isar6=1
id_mmfr0=270536963
id_mmfr1=0
id_mmfr2=19070976
id_mmfr3=34611729
id_mmfr4=0
impdef_nop=false
midr=0
pmu=Null
release_se=system.cpu_cluster.cpus3.isa.release_se
sme_vl_se=1
sve_vl_se=1
system=system

[system.cpu_cluster.cpus3.isa.release_se]
type=ArmRelease
eventq_index=0
extensions=CRYPTO FEAT_LSE FEAT_RDM FEAT_F32MM FEAT_F64MM FEAT_SVE FEAT_I8MM FEAT_DOTPROD FEAT_FCMA FEAT_JSCVT FEAT_PAuth FEAT_FLAGM FEAT_FLAGM2 FEAT_SME TME

[system.cpu_cluster.cpus3.mmu]
type=ArmMMU
children=dtb dtb_walker itb itb_walker l2_shared stage2_dtb stage2_dtb_walker stage2_itb stage2_itb_walker
dtb=system.cpu_cluster.cpus3.mmu.dtb
dtb_walker=system.cpu_cluster.cpus3.mmu.dtb_walker
eventq_index=0
itb=system.cpu_cluster.cpus3.mmu.itb
itb_walker=system.cpu_cluster.cpus3.mmu.itb_walker
release_se=system.cpu_cluster.cpus3.isa.release_se
stage2_dtb=system.cpu_cluster.cpus3.mmu.stage2_dtb
stage2_dtb_walker=system.cpu_cluster.cpus3.mmu.stage2_dtb_walker
stage2_itb=system.cpu_cluster.cpus3.mmu.stage2_itb
stage2_itb_walker=system.cpu_cluster.cpus3.mmu.stage2_itb_walker
sys=system

[system.cpu_cluster.cpus3.mmu.dtb]
type=ArmTLB
entry_type=data
eventq_index=0
is_stage2=false
next_level=system.cpu_cluster.cpus3.mmu.l2_shared
partial_levels=
size=64
sys=system

[system.cpu_cluster.cpus3.mmu.dtb_walker]
type=ArmTableWalker
children=power_state
clk_domain=system.cpu_cluster.clk_domain
eventq_index=0
is_stage2=false
num_squash_per_cycle=2
power_model=
power_state=system.cpu_cluster.cpus3.mmu.dtb_walker.power_state
sys=system
port=system.membus.cpu_side_ports[24]

[system.cpu_cluster.cpus3.mmu.dtb_walker.power_state]
type=PowerState
clk_gate_bins=20
clk_gate_max=1500000000
clk_gate_min=2
default_state=UNDEFINED
eventq_index=0
leaders=
possible_states=

[system.cpu_cluster.cpus3.mmu.itb]
type=ArmTLB
entry_type=instruction
eventq_index=0
is_stage2=false
next_level=system.cpu_cluster.cpus3.mmu.l2_shared
partial_levels=
size=64
sys=system

[system.cpu_cluster.cpus3.mmu.itb_walker]
type=ArmTableWalker
children=power_state
clk_domain=system.cpu_cluster.clk_domain
eventq_index=0
is_stage2=false
num_squash_per_cycle=2
power_model=
power_state=system.cpu_cluster.cpus3.mmu.itb_walker.power_state
sys=system
port=system.membus.cpu_side_ports[23]

[system.cpu_cluster.cpus3.mmu.itb_walker.power_state]
type=PowerState
clk_gate_bins=20
clk_gate_max=1500000000
clk_gate_min=2
default_state=UNDEFINED
eventq_index=0
leaders=
possible_states=

[system.cpu_cluster.cpus3.mmu.l2_shared]
type=ArmTLB
entry_type=unified
eventq_index=0
is_stage2=false
next_level=Null
partial_levels=L2
size=1280
sys=system

[system.cpu_cluster.cpus3.mmu.stage2_dtb]
type=ArmTLB
entry_type=data
eventq_index=0
is_stage2=true
next_level=Null
partial_levels=
size=32
sys=system

[system.cpu_cluster.cpus3.mmu.stage2_dtb_walker]
type=ArmTableWalker
children=power_state
clk_domain=system.cpu_cluster.clk_domain
eventq_index=0
is_stage2=true
num_squash_per_cycle=2
power_model=
power_state=system.cpu_cluster.cpus3.mmu.stage2_dtb_walker.power_state
sys=system
port=system.membus.cpu_side_ports[26]

[system.cpu_cluster.cpus3.mmu.stage2_dtb_walker.power_state]
type=PowerState
clk_gate_bins=20
clk_gate_max=1500000000
clk_gate_min=2
default_state=UNDEFINED
eventq_index=0
leaders=
possible_states=

[system.cpu_cluster.cpus3.mmu.stage2_itb]
type=ArmTLB
entry_type=instruction
eventq_index=0
is_stage2=true
next_level=Null
partial_levels=
size=32
sys=system

[system.cpu_cluster.cpus3.mmu.stage2_itb_walker]
type=ArmTableWalker
children=power_state
clk_domain=system.cpu_cluster.clk_domain
eventq_index=0
is_stage2=true
num_squash_per_cycle=2
power_model=
power_state=system.cpu_cluster.cpus3.mmu.stage2_itb_walker.power_state
sys=system
port=system.membus.cpu_side_ports[25]

[system.cpu_cluster.cpus3.mmu.stage2_itb_walker.power_state]
type=PowerState
clk_gate_bins=20
clk_gate_max=1500000000
clk_gate_min=2
default_state=UNDEFINED
eventq_index=0
leaders=
possible_states=

[system.cpu_cluster.cpus3.power_state]
type=PowerState
clk_gate_bins=20
clk_gate_max=1500000000
clk_gate_min=2
default_state=UNDEFINED
eventq_index=0
leaders=
possible_states=ON CLK_GATED OFF

[system.cpu_cluster.cpus3.tracer]
type=ExeTracer
eventq_index=0

[system.cpu_cluster.voltage_domain]
type=VoltageDomain
eventq_index=0
voltage=0.8201

[system.dmabridge]
type=Bridge
children=power_state
clk_domain=system.clk_domain
delay=75
eventq_index=0
power_model=
power_state=system.dmabridge.power_state
ranges=2147483648:6442450944
req_size=16
resp_size=16
cpu_side_port=system.iobus.mem_side_ports[1]
mem_side_port=system.membus.cpu_side_ports[0]

[system.dmabridge.power_state]
type=PowerState
clk_gate_bins=20
clk_gate_max=1500000000
clk_gate_min=2
default_state=UNDEFINED
eventq_index=0
leaders=
possible_states=

[system.dvfs_handler]
type=DVFSHandler
domains=
enable=false
eventq_index=0
sys_clk_domain=system.clk_domain
transition_latency=150000

[system.iobridge]
type=Bridge
children=power_state
clk_domain=system.clk_domain
delay=75
eventq_index=0
power_model=
power_state=system.iobridge.power_state
ranges=201326592:536870912 788529152:2147483648
req_size=16
resp_size=16
cpu_side_port=system.membus.mem_side_ports[1]
mem_side_port=system.iobus.cpu_side_ports[1]

[system.iobridge.power_state]
type=PowerState
clk_gate_bins=20
clk_gate_max=1500000000
clk_gate_min=2
default_state=UNDEFINED
eventq_index=0
leaders=
possible_states=

[system.iobus]
type=NoncoherentXBar
children=power_state
clk_domain=system.clk_domain
eventq_index=0
forward_latency=1
frontend_latency=2
header_latency=1
power_model=
power_state=system.iobus.power_state
response_latency=2
use_default_range=false
width=16
cpu_side_ports=system.pci_devices.dma system.iobridge.mem_side_port
mem_side_ports=system.pci_devices.pio system.dmabridge.cpu_side_port system.realview.flash1.port system.realview.vram.port system.realview.realview_io.pio system.realview.kmi0.pio system.realview.kmi1.pio system.realview.watchdog.pio system.realview.rtc.pio system.realview.pci_host.pio system.realview.energy_ctrl.pio system.realview.pwr_ctrl.pio system.realview.vio0.pio system.realview.vio1.pio system.realview.uart0.pio system.realview.uart1.pio system.realview.uart2.pio system.realview.uart3.pio

[system.iobus.power_state]
type=PowerState
clk_gate_bins=20
clk_gate_max=1500000000
clk_gate_min=2
default_state=UNDEFINED
eventq_index=0
leaders=
possible_states=

[system.mem_ctrls]
type=MemCtrl
children=dram power_state
clk_domain=system.clk_domain
command_window=15
disable_sanity_check=false
dram=system.mem_ctrls.dram
eventq_index=0
mem_sched_policy=frfcfs
min_reads_per_switch=16
min_writes_per_switch=16
power_model=
power_state=system.mem_ctrls.power_state
qos_policy=Null
qos_priorities=1
qos_priority_escalation=false
qos_q_policy=fifo
qos_requestors=               
qos_syncro_scheduler=false
qos_turnaround_policy=Null
static_backend_latency=15
static_frontend_latency=15
system=system
write_high_thresh_perc=85
write_low_thresh_perc=50
port=system.membus.mem_side_ports[0]

[system.mem_ctrls.dram]
type=DRAMInterface
children=power_state
IDD0=0.048
IDD02=0.003
IDD2N=0.034
IDD2N2=0.0
IDD2P0=0.0
IDD2P02=0.0
IDD2P1=0.025
IDD2P12=0.0
IDD3N=0.043000000000000003
IDD3N2=0.003
IDD3P0=0.0
IDD3P02=0.0
IDD3P1=0.037
IDD3P12=0.0
IDD4R=0.135
IDD4R2=0.0
IDD4W=0.123
IDD4W2=0.0
IDD5=0.25
IDD52=0.0
IDD6=0.03
IDD62=0.0
VDD=1.2
VDD2=2.5
activation_limit=4
addr_mapping=RoRaBaCoCh
bank_groups_per_rank=4
banks_per_rank=16
beats_per_clock=2
burst_length=8
clk_domain=system.clk_domain
conf_table_reported=true
data_clock_sync=false
device_bus_width=8
device_rowbuffer_size=1024
device_size=1073741824
devices_per_rank=8
dll=true
enable_dram_powerdown=false
eventq_index=0
image_file=
in_addr_map=true
kvm_map=true
max_accesses_per_row=16
null=false
page_policy=open_adaptive
power_model=
power_state=system.mem_ctrls.dram.power_state
range=2147483648:6442450944
ranks_per_channel=2
read_buffer_size=64
tAAD=1
tBURST=5
tBURST_MAX=5
tBURST_MIN=5
tCCD_L=8
tCCD_L_WR=8
tCK=1
tCL=21
tCS=2
tCWL=21
tPPD=0
tRAS=48
tRCD=21
tRCD_WR=21
tREFI=11700
tRFC=525
tRP=21
tRRD=5
tRRD_L=7
tRTP=11
tRTW=2
tWR=23
tWTR=8
tWTR_L=8
tXAW=32
tXP=9
tXPDLL=0
tXS=510
tXSDLL=0
two_cycle_activate=false
write_buffer_size=128
writeable=true

[system.mem_ctrls.dram.power_state]
type=PowerState
clk_gate_bins=20
clk_gate_max=1500000000
clk_gate_min=2
default_state=UNDEFINED
eventq_index=0
leaders=
possible_states=

[system.mem_ctrls.power_state]
type=PowerState
clk_gate_bins=20
clk_gate_max=1500000000
clk_gate_min=2
default_state=UNDEFINED
eventq_index=0
leaders=
possible_states=

[system.membus]
type=CoherentXBar
children=badaddr_responder power_state snoop_filter
clk_domain=system.clk_domain
eventq_index=0
forward_latency=4
frontend_latency=3
header_latency=1
max_outstanding_snoops=512
max_routing_table_size=512
point_of_coherency=true
point_of_unification=true
power_model=
power_state=system.membus.power_state
response_latency=2
snoop_filter=system.membus.snoop_filter
snoop_response_latency=4
system=system
use_default_range=false
width=16